LAMMPS (11 Aug 2017)
# Reference: M. Orsi, Comparative assessment of the ELBA coarse-grained
# model for water, Molecular Physics (2014), 112, 1566-1576

units real
atom_style full
read_data dataSingleSPC.lammps
  orthogonal box = (0 0 0) to (3.1 3.1 3.1)
  reading atoms ...
  3 atoms
  scanning bonds ...
  scanning angles ...
  reading bonds ...
  2 bonds
  reading angles ...
  1 angles
include forcefieldSPC.lmp
# Berendsen et al, in "Intermolecular forces", p. 331 (1981)
# Charges and geometry are specified in the "data." file.

mass 1 1.00794 # H
mass 2 15.9994 # O

pair_style lj/cut/coul/long 10.0
pair_modify tail yes
kspace_style pppm 1.0e-5

pair_coeff 1 1 0.00000 0.000
pair_coeff 1 2 0.00000 0.000
pair_coeff 2 2 0.15535 3.166

bond_style harmonic
bond_coeff 1 0.0 1.0

angle_style harmonic
angle_coeff 1 0.0 109.47

replicate 20 20 20
  orthogonal box = (0 0 0) to (62 62 62)
  24000 atoms
  16000 bonds
  8000 angles

# Nf is Nfrequency, calculate averages every this many timesteps
variable Nrun equal 2000
variable Nf equal 2000/10
variable Ne equal 10
variable Nr equal 200/10
variable Ndump equal 2000/20
variable Nr_rdf equal 0.5*2000/10

variable watMoleMass equal 18.0153 # /(g/mol)
variable nAvog equal 6.0221415e23 # Avogadro's number
variable watMoleculeMass equal (18.0153/6.0221415e+23)
variable A3_in_cm3 equal 1e-24 # Angstrom^3 in cm^3
variable nAtoms equal atoms
variable nMolecules equal v_nAtoms/3

variable Text equal 298.0
variable Pext equal 1.0

group hydrogen type 1
16000 atoms in group hydrogen
group oxygen type 2
8000 atoms in group oxygen

velocity all create 298 1234

neighbor 2.0 bin
neigh_modify every 1 delay 0 check yes

timestep 2.0

fix constrain all shake 1.0e-4 100 0 b 1 a 1
fix integrate all npt temp 298 298 100.0 iso 1 1 1000.0
fix removeMomentum all momentum 1 linear 1 1 1

compute T all temp
fix TempAve all ave/time 10 20 200 c_T

variable P equal press
fix PressAve all ave/time 10 20 200 v_P

compute PE all pe pair kspace
variable PE_Mol equal c_PE/v_nMolecules
fix PEAve_Mol all ave/time 10 20 200 v_PE_Mol

variable Dens equal v_nMolecules*2.99151057808921e-23/(vol*1e-24)
fix DensAve all ave/time 10 20 200 v_Dens file wat.dens

compute	msd oxygen msd com yes
fix msd oxygen ave/time 1 1 500 c_msd[4] file wat.msd

# 1000 after rdf means how many keyword/value pairs may be appended
# compute rdf and fix ave/time is a common combination to output rdf calculation into file
# here only O-O rdf is considered
compute rdf all rdf 1000 2 2 # oxygen-oxygen
fix rdf all ave/time 10 100 2000 c_rdf[*] file wat10.rdf mode vector

thermo_style custom step temp f_TempAve press f_PressAve f_PEAve_Mol f_DensAve
thermo_modify flush yes
thermo 200

dump trj all atom 100 wat.lammpstrj

run 2000
PPPM initialization ...
  G vector (1/distance) = 0.299405
  grid = 50 50 50
  stencil order = 5
  estimated absolute RMS force accuracy = 0.00405255
  estimated relative force accuracy = 1.22041e-05
  3d grid and FFT values/proc = 185193 125000
  update every 1 steps, delay 0 steps, check yes
Step Temp f_TempAve Press f_PressAve f_PEAve_Mol f_DensAve
0    447.00931            0    22069.201            0            0            0
Averages over the last 6 of 11 rows, steps 1000 to 2000:
Temp f_TempAve Press f_PressAve f_PEAve_Mol f_DensAve
297.717 297.903 -5.73698 -49.3082 -9.93485 0.975394
Loop time of 412.612 on 1 procs for 2000 steps with 24000 atoms

#write_restart restart.wat
